examples/feeders/1_REDE2_1/009_segmentoRamalBT.dss
New Line.RBT_1107342 phases=2 bus1=BT21791.1.4 bus2=UC1107342.1.4 linecode=105_2 length=0.012 units=km
New Line.RBT_1107345 phases=2 bus1=BT49541.2.4 bus2=UC1107345.2.4 linecode=50_2 length=0.02 units=km
New Line.RBT_1124340 phases=4 bus1=BT49541.1.2.3.4 bus2=UC1124340.1.2.3.4 linecode=51_4 length=0.017 units=km
New Line.RBT_1134165 phases=2 bus1=BT21931.1.4 bus2=UC1134165.1.4 linecode=50_2 length=0.01076 units=km
New Line.RBT_1107330 phases=2 bus1=BT61361.1.4 bus2=UC1107330.1.4 linecode=50_2 length=0.009 units=km
New Line.RBT_1107340 phases=2 bus1=BT21931.1.4 bus2=UC1107340.1.4 linecode=50_2 length=0.009 units=km
New Line.RBT_1132015 phases=2 bus1=BT21961.1.4 bus2=UC1132015.1.4 linecode=50_2 length=0.03 units=km
New Line.RBT_1107333 phases=2 bus1=BT322201.2.4 bus2=UC1107333.2.4 linecode=50_2 length=0.022 units=km
New Line.RBT_1107334 phases=2 bus1=BT62131.1.4 bus2=UC1107334.1.4 linecode=50_2 length=0.028 units=km
New Line.RBT_1121173 phases=2 bus1=BT42491.2.4 bus2=UC1121173.2.4 linecode=108_2 length=0.026 units=km
New Line.RBT_1137150 phases=2 bus1=ET11_132.1.4 bus2=UC1137150.1.4 linecode=105_2 length=0.017 units=km
New Line.RBT_1105833 phases=2 bus1=BT48691.1.4 bus2=UC1105833.1.4 linecode=50_2 length=0.019 units=km
New Line.RBT_1124041 phases=2 bus1=BT48691.2.4 bus2=UC1124041.2.4 linecode=50_2 length=0.03 units=km
New Line.RBT_1607347 phases=4 bus1=BT56881.1.2.3.4 bus2=UC1607347.1.2.3.4 linecode=51_4 length=0.008 units=km
New Line.RBT_1138614 phases=2 bus1=ET11_3987.1.4 bus2=UC1138614.1.4 linecode=105_2 length=0.01545 units=km
New Line.RBT_1132019 phases=2 bus1=ET11_3987.1.4 bus2=UC1132019.1.4 linecode=50_2 length=0.01024 units=km
New Line.RBT_1132012 phases=2 bus1=ET11_4785.1.4 bus2=UC1132012.1.4 linecode=50_2 length=0.01455 units=km
New Line.RBT_1130761 phases=2 bus1=ET11_4955.1.4 bus2=UC1130761.1.4 linecode=50_2 length=0.01924 units=km
New Line.RBT_1131858 phases=2 bus1=ET11_4955.2.4 bus2=UC1131858.2.4 linecode=50_2 length=0.00537 units=km
New Line.RBT_1107341 phases=2 bus1=ET11_4955.2.4 bus2=UC1107341.2.4 linecode=105_2 length=0.018 units=km
New Line.RBT_1605991 phases=2 bus1=BT37551.1.4 bus2=UC1605991.1.4 linecode=105_2 length=0.029 units=km
New Line.RBT_1607282 phases=2 bus1=BT37541.1.4 bus2=UC1607282.1.4 linecode=50_2 length=0.011 units=km
New Line.RBT_1607278 phases=3 bus1=ET16_1141.1.2.4 bus2=UC1607278.1.2.4 linecode=83_3 length=0.01312 units=km
New Line.RBT_1607368 phases=3 bus1=BT17981.1.2.4 bus2=UC1607368.1.2.4 linecode=83_3 length=0.01418 units=km
New Line.RBT_606150 phases=4 bus1=ET16_1142.1.2.3.4 bus2=UC606150.1.2.3.4 linecode=51_4 length=0.00784 units=km
New Line.RBT_1605996 phases=2 bus1=BT366861.1.4 bus2=UC1605996.1.4 linecode=50_2 length=0.00695 units=km
New Line.RBT_1607272 phases=2 bus1=BT7351.1.4 bus2=UC1607272.1.4 linecode=108_2 length=0.017 units=km
New Line.RBT_1633671 phases=4 bus1=BT675551.1.2.3.4 bus2=UC1633671.1.2.3.4 linecode=51_4 length=0.01387 units=km
New Line.RBT_1633896 phases=2 bus1=BT27761.1.4 bus2=UC1633896.1.4 linecode=50_2 length=0.01564 units=km
New Line.RBT_1635060 phases=2 bus1=BT617971.1.4 bus2=UC1635060.1.4 linecode=105_2 length=0.015 units=km
New Line.RBT_1607268 phases=3 bus1=BT27801.1.2.4 bus2=UC1607268.1.2.4 linecode=83_3 length=0.02 units=km
New Line.RBT_1607270 phases=3 bus1=ET16_1144.1.2.4 bus2=UC1607270.1.2.4 linecode=83_3 length=0.02324 units=km
New Line.RBT_1607271 phases=2 bus1=BT27751.1.4 bus2=UC1607271.1.4 linecode=50_2 length=0.03 units=km
New Line.RBT_1607358 phases=3 bus1=ET16_1301.1.2.4 bus2=UC1607358.1.2.4 linecode=83_3 length=0.02438 units=km
New Line.RBT_1607298 phases=4 bus1=ET16_1585.1.2.3.4 bus2=UC1607298.1.2.3.4 linecode=51_4 length=0.014 units=km
New Line.RBT_1607299 phases=2 bus1=BT3501.2.4 bus2=UC1607299.2.4 linecode=50_2 length=0.03 units=km
New Line.RBT_1607265 phases=2 bus1=BT48441.1.4 bus2=UC1607265.1.4 linecode=108_2 length=0.024 units=km
New Line.RBT_1632402 phases=3 bus1=BT48441.1.2.4 bus2=UC1632402.1.2.4 linecode=83_3 length=0.02692 units=km
New Line.RBT_1630759 phases=3 bus1=BT424151.1.2.4 bus2=UC1630759.1.2.4 linecode=83_3 length=0.02598 units=km
New Line.RBT_1627323 phases=3 bus1=ET16_2195.1.2.4 bus2=UC1627323.1.2.4 linecode=83_3 length=0.02425 units=km
New Line.RBT_1609690 phases=2 bus1=ET16_2428.1.4 bus2=UC1609690.1.4 linecode=50_2 length=0.00843 units=km
New Line.RBT_1620373 phases=4 bus1=ET16_2658.1.2.3.4 bus2=UC1620373.1.2.3.4 linecode=51_4 length=0.01603 units=km
New Line.RBT_1621994 phases=2 bus1=ET16_2916.1.4 bus2=UC1621994.1.4 linecode=50_2 length=0.00544 units=km
New Line.RBT_1607279 phases=4 bus1=BT37751.1.2.3.4 bus2=UC1607279.1.2.3.4 linecode=51_4 length=0.009 units=km
New Line.RBT_1607280 phases=4 bus1=BT48321.1.2.3.4 bus2=UC1607280.1.2.3.4 linecode=51_4 length=0.03 units=km
New Line.RBT_1607287 phases=2 bus1=BT18511.1.4 bus2=UC1607287.1.4 linecode=50_2 length=0.017 units=km
New Line.RBT_1607291 phases=3 bus1=BT72061.1.2.4 bus2=UC1607291.1.2.4 linecode=83_3 length=0.027 units=km
New Line.RBT_1607292 phases=2 bus1=BT617981.2.4 bus2=UC1607292.2.4 linecode=50_2 length=0.019 units=km
New Line.RBT_1607297 phases=3 bus1=BT72081.1.2.4 bus2=UC1607297.1.2.4 linecode=83_3 length=0.009 units=km
New Line.RBT_1607303 phases=2 bus1=BT2531.2.4 bus2=UC1607303.2.4 linecode=50_2 length=0.02 units=km
New Line.RBT_1607306 phases=3 bus1=BT74831.1.2.4 bus2=UC1607306.1.2.4 linecode=83_3 length=0.015 units=km
New Line.RBT_1607308 phases=3 bus1=BT74801.1.2.4 bus2=UC1607308.1.2.4 linecode=83_3 length=0.03 units=km
New Line.RBT_1607283 phases=2 bus1=BT18571.1.4 bus2=UC1607283.1.4 linecode=50_2 length=0.016 units=km
New Line.RBT_1607284 phases=2 bus1=BT18561.2.4 bus2=UC1607284.2.4 linecode=50_2 length=0.007 units=km
New Line.RBT_1607285 phases=4 bus1=BT18561.1.2.3.4 bus2=UC1607285.1.2.3.4 linecode=51_4 length=0.014 units=km
New Line.RBT_1607357 phases=3 bus1=ET16_3221.1.2.4 bus2=UC1607357.1.2.4 linecode=83_3 length=0.01524 units=km
New Line.RBT_1631852 phases=2 bus1=ET16_3221.1.4 bus2=UC1631852.1.4 linecode=50_2 length=0.03 units=km
New Line.RBT_637356 phases=2 bus1=BT806241.1.4 bus2=UC637356.1.4 linecode=105_2 length=0.02 units=km
New Line.RBT_1625171 phases=2 bus1=ET16_3297.1.4 bus2=UC1625171.1.4 linecode=108_2 length=0.02086 units=km
New Line.RBT_1625170 phases=2 bus1=ET16_3328.1.4 bus2=UC1625170.1.4 linecode=50_2 length=0.00872 units=km
New Line.RBT_1607302 phases=4 bus1=ET16_3364.1.2.3.4 bus2=UC1607302.1.2.3.4 linecode=51_4 length=0.02679 units=km
New Line.RBT_605914 phases=2 bus1=ET16_3545.1.4 bus2=UC605914.1.4 linecode=50_2 length=0.01782 units=km
New Line.RBT_1607276 phases=2 bus1=ET16_3548.2.4 bus2=UC1607276.2.4 linecode=108_2 length=0.013 units=km
New Line.RBT_1607277 phases=2 bus1=BT17901.1.4 bus2=UC1607277.1.4 linecode=50_2 length=0.014 units=km
New Line.RBT_1626490 phases=2 bus1=BT605401.1.4 bus2=UC1626490.1.4 linecode=50_2 length=0.015 units=km
New Line.RBT_1626672 phases=2 bus1=ET16_3549.1.4 bus2=UC1626672.1.4 linecode=108_2 length=0.013 units=km
New Line.RBT_1628760 phases=2 bus1=ET16_3904.1.4 bus2=UC1628760.1.4 linecode=50_2 length=0.01221 units=km
New Line.RBT_1628763 phases=2 bus1=ET16_3906.1.4 bus2=UC1628763.1.4 linecode=50_2 length=0.01928 units=km
New Line.RBT_1624026 phases=2 bus1=ET16_3908.1.4 bus2=UC1624026.1.4 linecode=50_2 length=0.0253 units=km
New Line.RBT_1607252 phases=3 bus1=ET16_3996.1.2.4 bus2=UC1607252.1.2.4 linecode=83_3 length=0.00784 units=km
New Line.RBT_1607258 phases=3 bus1=ET16_3996.1.2.4 bus2=UC1607258.1.2.4 linecode=83_3 length=0.01112 units=km
New Line.RBT_1229546 phases=2 bus1=BT566341.1.4 bus2=UC1229546.1.4 linecode=50_2 length=0.007 units=km
New Line.RBT_1606000 phases=2 bus1=BT641781.2.4 bus2=UC1606000.2.4 linecode=50_2 length=0.025 units=km
New Line.RBT_1607288 phases=3 bus1=BT641771.1.2.4 bus2=UC1607288.1.2.4 linecode=110_3 length=0.025 units=km
New Line.RBT_1629422 phases=4 bus1=ET16_3997.1.2.3.4 bus2=UC1629422.1.2.3.4 linecode=51_4 length=0.01706 units=km
New Line.RBT_1629639 phases=2 bus1=ET16_4173.1.4 bus2=UC1629639.1.4 linecode=50_2 length=0.00592 units=km
New Line.RBT_1632306 phases=2 bus1=ET16_5003.1.4 bus2=UC1632306.1.4 linecode=50_2 length=0.01171 units=km
New Line.RBT_1626487 phases=2 bus1=BT623101.1.4 bus2=UC1626487.1.4 linecode=50_2 length=0.005 units=km
New Line.RBT_1607316 phases=2 bus1=BT44361.2.4 bus2=UC1607316.2.4 linecode=50_2 length=0.03 units=km
New Line.RBT_1607318 phases=2 bus1=BT44371.1.4 bus2=UC1607318.1.4 linecode=105_2 length=0.03 units=km
New Line.RBT_1607319 phases=2 bus1=BT44351.1.4 bus2=UC1607319.1.4 linecode=50_2 length=0.009 units=km
New Line.RBT_1607322 phases=2 bus1=BT63241.1.4 bus2=UC1607322.1.4 linecode=108_2 length=0.012 units=km
New Line.RBT_1607326 phases=2 bus1=ET16_504.2.4 bus2=UC1607326.2.4 linecode=50_2 length=0.02723 units=km
New Line.RBT_1607328 phases=2 bus1=BT63251.2.4 bus2=UC1607328.2.4 linecode=50_2 length=0.026 units=km
New Line.RBT_1633892 phases=2 bus1=BT610692.1.4 bus2=UC1633892.1.4 linecode=50_2 length=0.00654 units=km
New Line.RBT_1638606 phases=2 bus1=ET16_5055.2.4 bus2=UC1638606.2.4 linecode=105_2 length=0.015 units=km
New Line.RBT_1627342 phases=2 bus1=BT610702.1.4 bus2=UC1627342.1.4 linecode=50_2 length=0.00716 units=km
New Line.RBT_1627321 phases=2 bus1=BT610692.1.4 bus2=UC1627321.1.4 linecode=50_2 length=0.03 units=km
New Line.RBT_1607257 phases=2 bus1=BT541511.1.4 bus2=UC1607257.1.4 linecode=108_2 length=0.011 units=km
New Line.RBT_1607255 phases=2 bus1=ET16_538.2.4 bus2=UC1607255.2.4 linecode=50_2 length=0.026 units=km
New Line.RBT_1607260 phases=2 bus1=BT60231.1.4 bus2=UC1607260.1.4 linecode=50_2 length=0.004 units=km
New Line.RBT_1626486 phases=2 bus1=ET16_5474.1.4 bus2=UC1626486.1.4 linecode=50_2 length=0.01 units=km
New Line.RBT_1635694 phases=2 bus1=ET16_5666.1.4 bus2=UC1635694.1.4 linecode=108_2 length=0.015 units=km
New Line.RBT_1607289 phases=3 bus1=ET16_5730.1.2.4 bus2=UC1607289.1.2.4 linecode=83_3 length=0.012 units=km
New Line.RBT_1607290 phases=2 bus1=BT41901.1.4 bus2=UC1607290.1.4 linecode=50_2 length=0.0198 units=km
New Line.RBT_1636598 phases=2 bus1=BT790071.1.4 bus2=UC1636598.1.4 linecode=105_2 length=0.02 units=km
New Line.RBT_1637704 phases=2 bus1=ET16_6019.2.4 bus2=UC1637704.2.4 linecode=105_2 length=0.02 units=km
New Line.RBT_1607353 phases=2 bus1=ET16_6081.1.4 bus2=UC1607353.1.4 linecode=50_2 length=0.025 units=km
New Line.RBT_1607349 phases=2 bus1=BT30801.1.4 bus2=UC1607349.1.4 linecode=50_2 length=0.008 units=km
New Line.RBT_1607350 phases=2 bus1=ET16_6082.2.4 bus2=UC1607350.2.4 linecode=50_2 length=0.005 units=km
New Line.RBT_1623434 phases=2 bus1=ET16_6165.2.4 bus2=UC1623434.2.4 linecode=108_2 length=0.022 units=km
New Line.RBT_1607355 phases=2 bus1=BT48472.2.4 bus2=UC1607355.2.4 linecode=50_2 length=0.02 units=km
New Line.RBT_1607304 phases=4 bus1=ET16_6318.1.2.3.4 bus2=UC1607304.1.2.3.4 linecode=51_4 length=0.008 units=km
New Line.RBT_1607305 phases=2 bus1=BT74751.1.4 bus2=UC1607305.1.4 linecode=50_2 length=0.022 units=km
New Line.RBT_1607273 phases=3 bus1=ET16_6460.1.2.4 bus2=UC1607273.1.2.4 linecode=83_3 length=0.013 units=km
New Line.RBT_1638954 phases=2 bus1=ET16_6460.2.4 bus2=UC1638954.2.4 linecode=105_2 length=0.015 units=km
New Line.RBT_3405838 phases=2 bus1=BT26811.2.4 bus2=UC3405838.2.4 linecode=50_2 length=0.014 units=km
New Line.RBT_628768 phases=2 bus1=BT26881.1.4 bus2=UC628768.1.4 linecode=50_2 length=0.026 units=km
New Line.RBT_3405846 phases=3 bus1=ET34_1581.1.2.4 bus2=UC3405846.1.2.4 linecode=83_3 length=0.01103 units=km
New Line.RBT_3405843 phases=2 bus1=BT37801.1.4 bus2=UC3405843.1.4 linecode=50_2 length=0.01 units=km
New Line.RBT_3405844 phases=2 bus1=BT37861.1.4 bus2=UC3405844.1.4 linecode=50_2 length=0.009 units=km
New Line.RBT_3405845 phases=2 bus1=BT37861.1.4 bus2=UC3405845.1.4 linecode=50_2 length=0.013 units=km
New Line.RBT_3422706 phases=2 bus1=ET34_5142.1.4 bus2=UC3422706.1.4 linecode=50_2 length=0.01238 units=km
New Line.RBT_3425629 phases=2 bus1=ET34_5142.1.4 bus2=UC3425629.1.4 linecode=50_2 length=0.00523 units=km
New Line.RBT_3433894 phases=2 bus1=ET34_5260.1.4 bus2=UC3433894.1.4 linecode=50_2 length=0.03 units=km
New Line.RBT_3435739 phases=3 bus1=ET6_1019.1.2.4 bus2=UC3435739.1.2.4 linecode=110_3 length=0.03 units=km
New Line.RBT_3432407 phases=2 bus1=ET6_1019.1.4 bus2=UC3432407.1.4 linecode=50_2 length=0.03 units=km
New Line.RBT_3405847 phases=2 bus1=ET6_1019.2.4 bus2=UC3405847.2.4 linecode=50_2 length=0.009 units=km
New Line.RBT_3405987 phases=2 bus1=BT37991.2.4 bus2=UC3405987.2.4 linecode=105_2 length=0.005 units=km
New Line.RBT_3422597 phases=2 bus1=ET6_1019.1.4 bus2=UC3422597.1.4 linecode=108_2 length=0.009 units=km
New Line.RBT_606114 phases=2 bus1=ET6_1030.1.4 bus2=UC606114.1.4 linecode=50_2 length=0.02422 units=km
New Line.RBT_606111 phases=4 bus1=ET6_1048.1.2.3.4 bus2=UC606111.1.2.3.4 linecode=51_4 length=0.00178 units=km
New Line.RBT_606139 phases=3 bus1=ET6_1138.1.2.4 bus2=UC606139.1.2.4 linecode=83_3 length=0.03 units=km
New Line.RBT_636933 phases=3 bus1=ET6_1138.1.2.4 bus2=UC636933.1.2.4 linecode=83_3 length=0.03 units=km
New Line.RBT_606147 phases=3 bus1=BT71761.1.2.4 bus2=UC606147.1.2.4 linecode=83_3 length=0.021 units=km
New Line.RBT_606148 phases=3 bus1=ET6_1145.1.2.4 bus2=UC606148.1.2.4 linecode=83_3 length=0.017 units=km
New Line.RBT_628757 phases=2 bus1=BT309341.1.4 bus2=UC628757.1.4 linecode=50_2 length=0.01531 units=km
New Line.RBT_1620360 phases=2 bus1=BT376881.1.4 bus2=UC1620360.1.4 linecode=50_2 length=0.015 units=km
New Line.RBT_606141 phases=2 bus1=BT71711.1.4 bus2=UC606141.1.4 linecode=50_2 length=0.008 units=km
New Line.RBT_606143 phases=3 bus1=ET6_1146.1.2.4 bus2=UC606143.1.2.4 linecode=83_3 length=0.012 units=km
New Line.RBT_622273 phases=3 bus1=BT597591.1.2.4 bus2=UC622273.1.2.4 linecode=115_3 length=0.013 units=km
New Line.RBT_622713 phases=2 bus1=BT475871.1.4 bus2=UC622713.1.4 linecode=50_2 length=0.005 units=km
New Line.RBT_605898 phases=4 bus1=ET6_1151.1.2.3.4 bus2=UC605898.1.2.3.4 linecode=51_4 length=0.019 units=km
New Line.RBT_627336 phases=2 bus1=ET6_1151.3.4 bus2=UC627336.3.4 linecode=50_2 length=0.0183 units=km
New Line.RBT_623007 phases=4 bus1=ET6_1177.1.2.3.4 bus2=UC623007.1.2.3.4 linecode=51_4 length=0.02156 units=km
New Line.RBT_607387 phases=2 bus1=BT332111.1.4 bus2=UC607387.1.4 linecode=50_2 length=0.027 units=km
New Line.RBT_605813 phases=3 bus1=BT461491.1.2.4 bus2=UC605813.1.2.4 linecode=83_3 length=0.026 units=km
New Line.RBT_605810 phases=3 bus1=BT313501.1.2.4 bus2=UC605810.1.2.4 linecode=83_3 length=0.028 units=km
New Line.RBT_605921 phases=3 bus1=BT71271.1.2.4 bus2=UC605921.1.2.4 linecode=83_3 length=0.022 units=km
New Line.RBT_605970 phases=2 bus1=ET6_122.1.4 bus2=UC605970.1.4 linecode=50_2 length=0.01299 units=km
New Line.RBT_606103 phases=3 bus1=BT29671.1.2.4 bus2=UC606103.1.2.4 linecode=83_3 length=0.03 units=km
New Line.RBT_606106 phases=2 bus1=BT46811.2.4 bus2=UC606106.2.4 linecode=105_2 length=0.01 units=km
New Line.RBT_605985 phases=2 bus1=BT74141.1.4 bus2=UC605985.1.4 linecode=105_2 length=0.005 units=km
New Line.RBT_622722 phases=2 bus1=BT74041.3.4 bus2=UC622722.3.4 linecode=50_2 length=0.017 units=km
New Line.RBT_607385 phases=2 bus1=BT74141.2.4 bus2=UC607385.2.4 linecode=50_2 length=0.024 units=km
New Line.RBT_623004 phases=4 bus1=BT74171.1.2.3.4 bus2=UC623004.1.2.3.4 linecode=51_4 length=0.015 units=km
New Line.RBT_605863 phases=2 bus1=BT74071.1.4 bus2=UC605863.1.4 linecode=50_2 length=0.008 units=km
New Line.RBT_605864 phases=2 bus1=BT74061.2.4 bus2=UC605864.2.4 linecode=108_2 length=0.03 units=km
New Line.RBT_605865 phases=3 bus1=BT74041.1.2.4 bus2=UC605865.1.2.4 linecode=83_3 length=0.02 units=km
New Line.RBT_605867 phases=2 bus1=BT74091.3.4 bus2=UC605867.3.4 linecode=108_2 length=0.02434 units=km
New Line.RBT_605873 phases=2 bus1=BT65651.1.4 bus2=UC605873.1.4 linecode=108_2 length=0.02 units=km
New Line.RBT_605859 phases=2 bus1=BT65581.2.4 bus2=UC605859.2.4 linecode=50_2 length=0.018 units=km
New Line.RBT_627346 phases=3 bus1=BT325231.1.2.4 bus2=UC627346.1.2.4 linecode=83_3 length=0.002 units=km
New Line.RBT_606124 phases=2 bus1=ET6_1260.1.4 bus2=UC606124.1.4 linecode=50_2 length=0.01053 units=km
New Line.RBT_606128 phases=3 bus1=BT132171.1.2.4 bus2=UC606128.1.2.4 linecode=83_3 length=0.02239 units=km
New Line.RBT_609682 phases=3 bus1=BT356501.1.2.4 bus2=UC609682.1.2.4 linecode=83_3 length=0.021 units=km
New Line.RBT_605855 phases=3 bus1=ET6_127.1.2.4 bus2=UC605855.1.2.4 linecode=83_3 length=0.013 units=km
New Line.RBT_605856 phases=2 bus1=BT356501.1.4 bus2=UC605856.1.4 linecode=50_2 length=0.024 units=km
New Line.RBT_605827 phases=2 bus1=BT10511.1.4 bus2=UC605827.1.4 linecode=50_2 length=0.03 units=km
New Line.RBT_605828 phases=2 bus1=BT10511.1.4 bus2=UC605828.1.4 linecode=50_2 length=0.008 units=km
New Line.RBT_605834 phases=2 bus1=BT26401.1.4 bus2=UC605834.1.4 linecode=50_2 length=0.027 units=km
New Line.RBT_605835 phases=2 bus1=BT26401.1.4 bus2=UC605835.1.4 linecode=50_2 length=0.02034 units=km
New Line.RBT_623432 phases=2 bus1=BT68261.1.4 bus2=UC623432.1.4 linecode=50_2 length=0.009 units=km
New Line.RBT_606126 phases=4 bus1=ET6_1350.1.2.3.4 bus2=UC606126.1.2.3.4 linecode=51_4 length=0.03 units=km
New Line.RBT_606130 phases=3 bus1=ET6_1445.1.2.4 bus2=UC606130.1.2.4 linecode=83_3 length=0.004 units=km
New Line.RBT_628766 phases=3 bus1=ET6_1445.1.2.4 bus2=UC628766.1.2.4 linecode=83_3 length=0.03 units=km
New Line.RBT_627350 phases=2 bus1=BT277501.2.4 bus2=UC627350.2.4 linecode=105_2 length=0.007 units=km
New Line.RBT_629428 phases=2 bus1=BT11261.1.4 bus2=UC629428.1.4 linecode=50_2 length=0.0129 units=km
New Line.RBT_637705 phases=2 bus1=BT277501.2.4 bus2=UC637705.2.4 linecode=50_2 length=0.03 units=km
New Line.RBT_605801 phases=2 bus1=BT11261.2.4 bus2=UC605801.2.4 linecode=50_2 length=0.01 units=km
New Line.RBT_605803 phases=2 bus1=BT11271.1.4 bus2=UC605803.1.4 linecode=50_2 length=0.003 units=km
New Line.RBT_605804 phases=2 bus1=ET6_1503.1.4 bus2=UC605804.1.4 linecode=105_2 length=0.017 units=km
New Line.RBT_631859 phases=2 bus1=BT326331.1.4 bus2=UC631859.1.4 linecode=50_2 length=0.02887 units=km
New Line.RBT_632016 phases=2 bus1=BT326331.1.4 bus2=UC632016.1.4 linecode=50_2 length=0.01222 units=km
New Line.RBT_607367 phases=2 bus1=BT326331.1.4 bus2=UC607367.1.4 linecode=50_2 length=0.01 units=km
New Line.RBT_605806 phases=2 bus1=ET6_1504.1.4 bus2=UC605806.1.4 linecode=50_2 length=0.01694 units=km
New Line.RBT_605816 phases=4 bus1=BT33451.1.2.3.4 bus2=UC605816.1.2.3.4 linecode=109_4 length=0.015 units=km
New Line.RBT_605901 phases=2 bus1=ET6_1647.1.4 bus2=UC605901.1.4 linecode=50_2 length=0.01813 units=km
New Line.RBT_605817 phases=3 bus1=ET6_1870.1.2.4 bus2=UC605817.1.2.4 linecode=83_3 length=0.03 units=km
New Line.RBT_605989 phases=2 bus1=BT332021.1.4 bus2=UC605989.1.4 linecode=50_2 length=0.024 units=km
New Line.RBT_607377 phases=2 bus1=ET6_1960.2.4 bus2=UC607377.2.4 linecode=50_2 length=0.015 units=km
New Line.RBT_607382 phases=2 bus1=ET6_2064.2.4 bus2=UC607382.2.4 linecode=50_2 length=0.02264 units=km
New Line.RBT_607384 phases=4 bus1=ET6_2090.1.2.3.4 bus2=UC607384.1.2.3.4 linecode=51_4 length=0.018 units=km
New Line.RBT_605993 phases=2 bus1=ET6_2417.1.4 bus2=UC605993.1.4 linecode=50_2 length=0.01622 units=km
New Line.RBT_621168 phases=3 bus1=ET6_2860.1.2.4 bus2=UC621168.1.2.4 linecode=83_3 length=0.01201 units=km
New Line.RBT_621999 phases=2 bus1=BT442091.1.4 bus2=UC621999.1.4 linecode=50_2 length=0.01 units=km
New Line.RBT_622777 phases=2 bus1=ET6_3010.1.4 bus2=UC622777.1.4 linecode=50_2 length=0.01785 units=km
New Line.RBT_622267 phases=2 bus1=BT475961.1.4 bus2=UC622267.1.4 linecode=50_2 length=0.022 units=km
New Line.RBT_622720 phases=2 bus1=BT475941.2.4 bus2=UC622720.2.4 linecode=50_2 length=0.024 units=km
New Line.RBT_624028 phases=2 bus1=ET6_3011.1.4 bus2=UC624028.1.4 linecode=50_2 length=0.02889 units=km
New Line.RBT_628753 phases=2 bus1=BT615271.1.4 bus2=UC628753.1.4 linecode=50_2 length=0.03 units=km
New Line.RBT_622270 phases=2 bus1=BT615301.2.4 bus2=UC622270.2.4 linecode=50_2 length=0.01409 units=km
New Line.RBT_622714 phases=2 bus1=BT475911.1.4 bus2=UC622714.1.4 linecode=50_2 length=0.022 units=km
New Line.RBT_632613 phases=2 bus1=BT703841.1.4 bus2=UC632613.1.4 linecode=50_2 length=0.02776 units=km
New Line.RBT_622709 phases=2 bus1=ET6_3019.2.4 bus2=UC622709.2.4 linecode=50_2 length=0.01141 units=km
New Line.RBT_605824 phases=2 bus1=BT8881.1.4 bus2=UC605824.1.4 linecode=50_2 length=0.007 units=km
New Line.RBT_622257 phases=2 bus1=BT614931.1.4 bus2=UC622257.1.4 linecode=50_2 length=0.014 units=km
New Line.RBT_622258 phases=2 bus1=BT614951.2.4 bus2=UC622258.2.4 linecode=50_2 length=0.014 units=km
New Line.RBT_624033 phases=2 bus1=ET6_3224.1.4 bus2=UC624033.1.4 linecode=50_2 length=0.00537 units=km
New Line.RBT_605836 phases=2 bus1=BT26661.2.4 bus2=UC605836.2.4 linecode=50_2 length=0.009 units=km
New Line.RBT_605825 phases=2 bus1=ET6_3434.1.4 bus2=UC605825.1.4 linecode=50_2 length=0.01184 units=km
New Line.RBT_626481 phases=2 bus1=ET6_3507.1.4 bus2=UC626481.1.4 linecode=50_2 length=0.01789 units=km
New Line.RBT_626476 phases=2 bus1=ET6_3509.1.4 bus2=UC626476.1.4 linecode=105_2 length=0.01 units=km
New Line.RBT_626678 phases=2 bus1=ET6_3538.1.4 bus2=UC626678.1.4 linecode=108_2 length=0.00947 units=km
New Line.RBT_627337 phases=2 bus1=BT638531.1.4 bus2=UC627337.1.4 linecode=50_2 length=0.02 units=km
New Line.RBT_626699 phases=2 bus1=ET6_3604.1.4 bus2=UC626699.1.4 linecode=50_2 length=0.01108 units=km
New Line.RBT_633672 phases=2 bus1=BT554561.1.4 bus2=UC633672.1.4 linecode=50_2 length=0.01814 units=km
New Line.RBT_609687 phases=2 bus1=ET6_3613.1.4 bus2=UC609687.1.4 linecode=108_2 length=0.01337 units=km
New Line.RBT_626698 phases=2 bus1=ET6_3634.1.4 bus2=UC626698.1.4 linecode=50_2 length=0.00768 units=km
New Line.RBT_627344 phases=2 bus1=ET6_3817.1.4 bus2=UC627344.1.4 linecode=50_2 length=0.01215 units=km
New Line.RBT_627343 phases=2 bus1=ET6_3818.1.4 bus2=UC627343.1.4 linecode=50_2 length=0.00271 units=km
New Line.RBT_630753 phases=2 bus1=ET6_3819.2.4 bus2=UC630753.2.4 linecode=50_2 length=0.01538 units=km
New Line.RBT_625624 phases=2 bus1=ET6_3819.1.4 bus2=UC625624.1.4 linecode=50_2 length=0.02 units=km
New Line.RBT_605823 phases=3 bus1=BT66551.1.2.4 bus2=UC605823.1.2.4 linecode=83_3 length=0.03 units=km
New Line.RBT_605821 phases=4 bus1=ET6_3819.1.2.3.4 bus2=UC605821.1.2.3.4 linecode=109_4 length=0.03 units=km
New Line.RBT_605822 phases=2 bus1=BT8931.2.4 bus2=UC605822.2.4 linecode=50_2 length=0.008 units=km
New Line.RBT_605820 phases=3 bus1=BT8941.1.2.4 bus2=UC605820.1.2.4 linecode=83_3 length=0.023 units=km
New Line.RBT_605808 phases=2 bus1=ET6_4161.1.4 bus2=UC605808.1.4 linecode=50_2 length=0.01513 units=km
New Line.RBT_605819 phases=3 bus1=BT9081.1.2.4 bus2=UC605819.1.2.4 linecode=83_3 length=0.027 units=km
New Line.RBT_609688 phases=3 bus1=BT326261.1.2.4 bus2=UC609688.1.2.4 linecode=83_3 length=0.028 units=km
New Line.RBT_630758 phases=3 bus1=ET6_4489.1.2.4 bus2=UC630758.1.2.4 linecode=83_3 length=0.02797 units=km
New Line.RBT_631391 phases=2 bus1=ET6_4704.2.4 bus2=UC631391.2.4 linecode=108_2 length=0.00928 units=km
New Line.RBT_632607 phases=4 bus1=ET6_4910.1.2.3.4 bus2=UC632607.1.2.3.4 linecode=51_4 length=0.03 units=km
New Line.RBT_605904 phases=4 bus1=BT731561.1.2.3.4 bus2=UC605904.1.2.3.4 linecode=51_4 length=0.01421 units=km
New Line.RBT_605905 phases=2 bus1=ET6_5085.2.4 bus2=UC605905.2.4 linecode=50_2 length=0.03 units=km
New Line.RBT_634166 phases=3 bus1=ET6_5472.1.2.4 bus2=UC634166.1.2.4 linecode=83_3 length=0.015 units=km
New Line.RBT_635862 phases=4 bus1=ET6_5595.1.2.3.4 bus2=UC635862.1.2.3.4 linecode=109_4 length=0.02 units=km
New Line.RBT_605815 phases=2 bus1=ET6_5595.3.4 bus2=UC605815.3.4 linecode=50_2 length=0.019 units=km
New Line.RBT_635550 phases=4 bus1=ET6_5659.1.2.3.4 bus2=UC635550.1.2.3.4 linecode=51_4 length=0.022 units=km
New Line.RBT_635963 phases=4 bus1=ET6_5711.1.2.3.4 bus2=UC635963.1.2.3.4 linecode=109_4 length=0.03 units=km
New Line.RBT_635966 phases=4 bus1=ET6_5712.1.2.3.4 bus2=UC635966.1.2.3.4 linecode=109_4 length=0.02 units=km
New Line.RBT_635543 phases=4 bus1=ET6_5712.1.2.3.4 bus2=UC635543.1.2.3.4 linecode=51_4 length=0.021 units=km
New Line.RBT_623015 phases=2 bus1=BT295341.1.4 bus2=UC623015.1.4 linecode=108_2 length=0.015 units=km
New Line.RBT_627328 phases=2 bus1=BT474991.2.4 bus2=UC627328.2.4 linecode=108_2 length=0.015 units=km
New Line.RBT_626695 phases=2 bus1=BT475001.1.4 bus2=UC626695.1.4 linecode=50_2 length=0.03 units=km
New Line.RBT_623433 phases=2 bus1=BT10401.2.4 bus2=UC623433.2.4 linecode=50_2 length=0.012 units=km
New Line.RBT_637399 phases=2 bus1=BT800541.1.4 bus2=UC637399.1.4 linecode=105_2 length=0.03 units=km
New Line.RBT_699990 phases=4 bus1=BT295341.1.2.3.4 bus2=UC699990.1.2.3.4 linecode=51_4 length=0.01 units=km
New Line.RBT_605990 phases=2 bus1=BT295341.2.4 bus2=UC605990.2.4 linecode=105_2 length=0.002 units=km
New Line.RBT_605988 phases=2 bus1=BT295361.2.4 bus2=UC605988.2.4 linecode=108_2 length=0.01 units=km
New Line.RBT_605982 phases=2 bus1=BT10401.2.4 bus2=UC605982.2.4 linecode=50_2 length=0.015 units=km
New Line.RBT_622703 phases=2 bus1=BT475001.1.4 bus2=UC622703.1.4 linecode=105_2 length=0.024 units=km
New Line.RBT_607366 phases=2 bus1=BT197792.1.4 bus2=UC607366.1.4 linecode=50_2 length=0.011 units=km
New Line.RBT_605812 phases=2 bus1=BT295361.2.4 bus2=UC605812.2.4 linecode=50_2 length=0.013 units=km
New Line.RBT_605809 phases=2 bus1=BT197792.1.4 bus2=UC605809.1.4 linecode=50_2 length=0.009 units=km
New Line.RBT_605807 phases=2 bus1=BT10401.2.4 bus2=UC605807.2.4 linecode=50_2 length=0.003 units=km
New Line.RBT_605896 phases=3 bus1=BT10391.1.2.4 bus2=UC605896.1.2.4 linecode=83_3 length=0.03 units=km
New Line.RBT_637397 phases=4 bus1=ET6_6158.1.2.3.4 bus2=UC637397.1.2.3.4 linecode=51_4 length=0.01 units=km
New Line.RBT_637360 phases=4 bus1=ET6_6197.1.2.3.4 bus2=UC637360.1.2.3.4 linecode=51_4 length=0.005 units=km
New Line.RBT_637918 phases=4 bus1=ET6_6249.1.2.3.4 bus2=UC637918.1.2.3.4 linecode=51_4 length=0.03 units=km
New Line.RBT_637912 phases=2 bus1=BT806221.1.4 bus2=UC637912.1.4 linecode=105_2 length=0.03 units=km
New Line.RBT_605829 phases=2 bus1=ET6_6272.1.4 bus2=UC605829.1.4 linecode=50_2 length=0.017 units=km
New Line.RBT_637576 phases=4 bus1=ET6_6273.1.2.3.4 bus2=UC637576.1.2.3.4 linecode=51_4 length=0.005 units=km
New Line.RBT_623427 phases=2 bus1=BT806261.1.4 bus2=UC623427.1.4 linecode=105_2 length=0.03 units=km
New Line.RBT_606123 phases=3 bus1=ET6_6273.1.2.4 bus2=UC606123.1.2.4 linecode=83_3 length=0.03 units=km
New Line.RBT_605906 phases=2 bus1=ET6_6386.1.4 bus2=UC605906.1.4 linecode=50_2 length=0.02293 units=km
New Line.RBT_609683 phases=2 bus1=BT332061.2.4 bus2=UC609683.2.4 linecode=50_2 length=0.014 units=km
New Line.RBT_609684 phases=2 bus1=BT332071.1.4 bus2=UC609684.1.4 linecode=50_2 length=0.029 units=km
New Line.RBT_609685 phases=2 bus1=BT332001.2.4 bus2=UC609685.2.4 linecode=50_2 length=0.007 units=km
New Line.RBT_609686 phases=2 bus1=BT332001.1.4 bus2=UC609686.1.4 linecode=50_2 length=0.03 units=km
New Line.RBT_625625 phases=2 bus1=BT332061.1.4 bus2=UC625625.1.4 linecode=50_2 length=0.007 units=km
New Line.RBT_633056 phases=2 bus1=BT332061.2.4 bus2=UC633056.2.4 linecode=50_2 length=0.01538 units=km
New Line.RBT_606117 phases=4 bus1=ET6_722.1.2.3.4 bus2=UC606117.1.2.3.4 linecode=51_4 length=0.01907 units=km
New Line.RBT_621171 phases=4 bus1=ET6_723.1.2.3.4 bus2=UC621171.1.2.3.4 linecode=51_4 length=0.022 units=km
New Line.RBT_606120 phases=4 bus1=ET6_724.1.2.3.4 bus2=UC606120.1.2.3.4 linecode=51_4 length=0.03 units=km
New Line.RBT_606113 phases=4 bus1=ET6_726.1.2.3.4 bus2=UC606113.1.2.3.4 linecode=51_4 length=0.0151 units=km
New Line.RBT_606121 phases=4 bus1=BT57541.1.2.3.4 bus2=UC606121.1.2.3.4 linecode=51_4 length=0.002 units=km
New Line.RBT_606109 phases=4 bus1=BT21331.1.2.3.4 bus2=UC606109.1.2.3.4 linecode=51_4 length=0.006 units=km
New Line.RBT_606110 phases=4 bus1=BT22981.1.2.3.4 bus2=UC606110.1.2.3.4 linecode=51_4 length=0.011 units=km
New Line.RBT_606122 phases=4 bus1=BT46661.1.2.3.4 bus2=UC606122.1.2.3.4 linecode=109_4 length=0.012 units=km
New Line.RBT_606101 phases=4 bus1=BT37471.1.2.3.4 bus2=UC606101.1.2.3.4 linecode=51_4 length=0.005 units=km
New Line.RBT_606102 phases=2 bus1=BT23131.1.4 bus2=UC606102.1.4 linecode=50_2 length=0.007 units=km
New Line.RBT_605911 phases=4 bus1=ET6_731.1.2.3.4 bus2=UC605911.1.2.3.4 linecode=51_4 length=0.02307 units=km
New Line.RBT_605910 phases=4 bus1=ET6_732.1.2.3.4 bus2=UC605910.1.2.3.4 linecode=51_4 length=0.00192 units=km
New Line.RBT_605908 phases=2 bus1=BT33441.2.4 bus2=UC605908.2.4 linecode=108_2 length=0.03 units=km
New Line.RBT_605909 phases=3 bus1=ET6_735.1.2.4 bus2=UC605909.1.2.4 linecode=83_3 length=0.02338 units=km
New Line.RBT_605902 phases=4 bus1=BT64621.1.2.3.4 bus2=UC605902.1.2.3.4 linecode=51_4 length=0.005 units=km
New Line.RBT_606127 phases=4 bus1=ET6_808.1.2.3.4 bus2=UC606127.1.2.3.4 linecode=51_4 length=0.00287 units=km
New Line.RBT_606135 phases=4 bus1=BT135471.1.2.3.4 bus2=UC606135.1.2.3.4 linecode=51_4 length=0.012 units=km
New Line.RBT_606132 phases=4 bus1=BT18011.1.2.3.4 bus2=UC606132.1.2.3.4 linecode=51_4 length=0.013 units=km
New Line.RBT_605884 phases=2 bus1=ET6_878.1.4 bus2=UC605884.1.4 linecode=105_2 length=0.027 units=km
